data_global
_chemical_name 'Hexagonal Beta-tridymite (based on Demuth 1999) '
_cell_length_a 5.1908
_cell_length_b 5.1908
_cell_length_c 8.4702
_cell_angle_alpha 90
_cell_angle_beta 90
_cell_angle_gamma 120
_symmetry_space_group_name_H-M 'P 63/m m c'
_space_group.IT_number 194
_cell_formula_units_Z              4
_symmetry_cell_setting                  hexagonal
loop_
  _symmetry_equiv_pos_as_xyz
   x,y,z
   x-y,x,z+1/2
   y,-x+y,z+1/2
   -y,x-y,z
   -x+y,-x,z
   x-y,-y,-z
   -x,-x+y,-z
   -x,-y,z+1/2
   y,x,-z
   -y,-x,-z+1/2
   -x+y,y,-z+1/2
   x,x-y,-z+1/2
   -x,-y,-z
   -x+y,-x,-z+1/2
   -y,x-y,-z+1/2
   y,-x+y,-z
   x-y,x,-z
   -x+y,y,z
   x,x-y,z
   x,y,-z+1/2
   -y,-x,z
   y,x,z+1/2
   x-y,-y,z+1/2
   -x,-x+y,z+1/2
loop_
  _atom_site_label
  _atom_site_fract_x
  _atom_site_fract_y
  _atom_site_fract_z
   Si  0.33333  0.66667  0.06240
   O1  0.33333  0.66667  0.25000
   O2  0.50000  0.00000  0.00000
