data_global
_publ_section_title
;
;
_chemical_name 'Keatite (based on Demuth 1999) '
_cell_length_a 7.4669
_cell_length_b 7.4669
_cell_length_c 8.5639
_cell_angle_alpha 90
_cell_angle_beta 90
_cell_angle_gamma 90
_symmetry_space_group_name_H-M 'P 41 21 2'

loop_
  _atom_site_label
  _atom_site_symmetry_multiplicity
  _atom_site_Wyckoff_symbol
  _atom_site_fract_x
  _atom_site_fract_y
  _atom_site_fract_z
   Si1 4 a 0.4150  0.4150 0.0000
   Si2 8 b 0.3251  0.1199 0.2496
   O1  8 b 0.4433  0.1252 0.4037
   O2  8 b 0.1191  0.1162 0.2976
   O3  8 b 0.3628  0.2944 0.1467
