data_global
_publ_section_title
;
;
_chemical_name 'Stishovite (based on Demuth 1999)'
_cell_length_a 4.1636
_cell_length_b 4.1636
_cell_length_c 2.6696
_cell_angle_alpha 90
_cell_angle_beta  90
_cell_angle_gamma 90
_symmetry_space_group_name_H-M 'P 42/m n m'

loop_
  _atom_site_label
  _atom_site_symmetry_multiplicity
  _atom_site_Wyckoff_symbol
  _atom_site_fract_x
  _atom_site_fract_y
  _atom_site_fract_z
   Si1 2 a 0.0000  0.0000 0.0000
   Si2 2 a 0.5000  0.5000 0.5000
   O1  4 f 0.3056  0.3056 0.0000
