loop_
_chemical_name_mineral             'Quartz low'
;
LDA results from Demuth 1999 for alpha quartz.
;
_chemical_formula_sum 'Si O2'
_cell_length_a 4.8992
_cell_length_b 4.8992
_cell_length_c 5.3832
_cell_angle_alpha 90
_cell_angle_beta 90
_cell_angle_gamma 120
_symmetry_space_group_name_H-M 'P 31 2 1'
loop_
_space_group_symop_operation_xyz
  'x,y,z'
  'y,x,-z'
  '-y,x-y,1/3+z'
  '-x,-x+y,1/3-z'
  '-x+y,-x,2/3+z'
  'x-y,-y,2/3-z'
loop_
_atom_site_label
_atom_site_fract_x
_atom_site_fract_y
_atom_site_fract_z
Si1   0.4695   0.0000   0.3333
O1    0.4143   0.2670   0.1199
