_chemical_name_mineral             'Quartz high'
;
LDA results from Demuth 1999 for beta quartz.
;
_chemical_formula_sum 'Si O2'
_cell_length_a                     5.0261
_cell_length_b                     5.0261
_cell_length_c                     5.5124
_cell_angle_alpha                  90
_cell_angle_beta                   90
_cell_angle_gamma                  120
_symmetry_space_group_name_H-M     'P 62 2 2'
loop_
_symmetry_equiv_pos_as_xyz
  'x,y,z'
  '-y,x-y,2/3+z'
  'y-x,-x,1/3+z'
  '-x,-y,z'
  'y,y-x,2/3+z'
  'x-y,x,1/3+z'
  'y,x,2/3-z'
  'x-y,-y,-z'
  '-x,y-x,1/3-z'
  '-y,-x,2/3-z'
  'y-x,y,-z'
  'x,x-y,1/3-z'
loop_
_atom_type_symbol
_atom_type_oxidation_number
  Si4+   4.000
  O2-   -2.000
loop_
_atom_site_label
_atom_site_type_symbol
_atom_site_symmetry_multiplicity
_atom_site_Wyckoff_symbol
_atom_site_fract_x
_atom_site_fract_y
_atom_site_fract_z
  Si1   Si4+   3 c 0.5 0.5 0.3333
  O1    O2-    6 j 0.2090 -0.2090 0.8333
