data_global
_publ_section_title
;
NOT CORRECT!!!
;
_chemical_name_mineral 'beta Cristobalite I-42d structure (based on Demuth 1999)'
_cell_length_a 7.1153
_cell_length_b 7.1153
_cell_length_c 7.2476
_cell_angle_alpha 90
_cell_angle_beta  90
_cell_angle_gamma 90
_symmetry_space_group_name_H-M 'I -4 2 d'

loop_
  _atom_site_label
  _atom_site_symmetry_multiplicity
  _atom_site_Wyckoff_symbol
  _atom_site_fract_x
  _atom_site_fract_y
  _atom_site_fract_z
   Si1  4 a 0.2500  0.2500 0.2500
   Si2  4 a 0.0000  0.0000 0.0000
   O1   8 d 0.0862  0.2500 0.1250
   O2   8 d 0.0862  0.2500 0.1250
Si1   0.2758  0.2758 0.2758
Si2   0.0184  0.0184 0.0184
O1    0.6391  0.6552 0.0557
O2    0.1470  0.1470 0.1470 
