data_global
_chemical_name_systematic          'MgO'
_chemical_name_mineral             'MgO h-MgO'
_chemical_formula_structural       'Mg O'
_chemical_formula_sum              'Mg O'
_publ_section_title
;
Changed to MgO from Joshi et al 2012
;
_symmetry_space_group_name_H-M 'P 63 m c'
loop_
_symmetry_equiv_pos_as_xyz
  'x,y,z'
  '-y,x-y,z'
  'y-x,-x,z'
  '-y,-x,z'
  'y-x,y,z'
  'x,x-y,z'
  '-x,-y,1/2+z'
  'y,y-x,1/2+z'
  'x-y,x,1/2+z'
  'y,x,1/2+z'
  'x-y,-y,1/2+z'
  '-x,y-x,1/2+z'
_cell_length_a                     3.50
_cell_length_b                     3.50
_cell_length_c                     4.288
_cell_angle_alpha                  90
_cell_angle_beta                   90
_cell_angle_gamma                  120
loop_
_atom_type_symbol
_atom_type_oxidation_number
  Mg2+   2.000
  O2-   -2.000
loop_
_atom_site_label
_atom_site_type_symbol
_atom_site_symmetry_multiplicity
_atom_site_Wyckoff_symbol
_atom_site_fract_x
_atom_site_fract_y
_atom_site_fract_z
_atom_site_occupancy
_atom_site_attached_hydrogens
_atom_site_calc_flag
  Mg1   Mg2+   2 b 0.3333 0.6667 0. 1.  0 d
  O1    O2-    2 b 0.3333 0.6667 0.5 1.  0 d
