data_global
_publ_section_title
;
;
_chemical_name 'MgSiO3 tetragonal Majorite structure I41a (from Umemoto 2006)'
_cell_length_a 11.54
_cell_length_b 11.54
_cell_length_c 11.42
_cell_angle_alpha 90
_cell_angle_beta  90
_cell_angle_gamma 90
_symmetry_space_group_name_H-M 'I 41/a'

loop_
_space_group_symop_operation_xyz
  'x,y,z'
  '1/2+x,1/2+y,1/2+z'
  '1/4+y,3/4-x,1/4-z'
  '3/4+y,1/4-x,3/4-z'
  '1/4-y,3/4+x,1/4+z'
  '3/4-y,1/4+x,3/4+z'
  '1/2+x,y,1/2-z'
  '+x,1/2+y,-z'
  '1/2-x,-y,1/2+z'
  '-x,1/2-y,+z'
  '1/4-y,1/4+x,3/4-z'
  '3/4-y,3/4+x,1/4-z'
  '1/4+y,1/4-x,3/4+z'
  '3/4+y,3/4-x,1/4+z'
  '-x,-y,-z'
  '1/2-x,1/2-y,1/2-z'

loop_
_atom_site_label
_atom_site_fract_x
_atom_site_fract_y
_atom_site_fract_z
Mg1  0.1280  0.0117  0.2632 
Mg2  0.5000  0.2500  0.6226
Mg3  0.0000  0.0000  0.5000
Si1  0.0000  0.0000  0.0000
Si2  0.0000  0.2500  0.3750
Si3  0.0000  0.2500  0.8750
Si4  0.6255  0.0106  0.7552
O1   0.0254  0.0608  0.6678
O2   0.0444 -0.0470  0.8604
O3   0.2232  0.1068  0.8075
O4   0.2135 -0.0848  0.6996
O5  -0.0639  0.1626  0.4691
O6  -0.1031  0.2117  0.7830
