_chemical_name_mineral 'Cristobalite-alpha'
loop_
_publ_section_title
;
 alpha cristobalite from Demuth 1999
;
_chemical_formula_sum 'Si O2'
_cell_length_a 4.9751
_cell_length_b 4.9751
_cell_length_c 6.9261
_cell_angle_alpha 90
_cell_angle_beta 90
_cell_angle_gamma 90
_symmetry_space_group_name_H-M 'P 41 21 2'
loop_
_space_group_symop_operation_xyz
  'x,y,z'
  'y,x,-z'
  '1/2-y,1/2+x,1/4+z'
  '1/2-x,1/2+y,1/4-z'
  '-x,-y,1/2+z'
  '-y,-x,1/2-z'
  '1/2+y,1/2-x,3/4+z'
  '1/2+x,1/2-y,3/4-z'
loop_
_atom_site_label
_atom_site_fract_x
_atom_site_fract_y
_atom_site_fract_z
Si   0.2988   0.2988   0.0000
O    0.2399   0.1007   0.1768
