data_global
_publ_section_title
;
Note shift in coor system for z coor by .75 units
;
_chemical_name 'Orthorhombic Beta-tridymite (based on Demuth 1999) '
_cell_length_a 8.9766
_cell_length_b 5.0084
_cell_length_c 8.1786
_cell_angle_alpha 90
_cell_angle_beta 90
_cell_angle_gamma 90
_symmetry_space_group_name_H-M 'C 2 2 21'

loop_
  _atom_site_label
  _atom_site_fract_x
  _atom_site_fract_y
  _atom_site_fract_z
   Si 0.1671  0.5821 0.1874
   O  0.3301  0.0000 0.5000
   O  0.0000  0.5961 0.2500
   O  0.2576  0.3693 0.2935
