data_global
_publ_section_title
;
;
_chemical_name 'SiO2 cotunnite structure (from Umemoto 2006)'
_cell_length_a 4.69
_cell_length_b 3.95
_cell_length_c 2.08
_cell_angle_alpha 90
_cell_angle_beta  90
_cell_angle_gamma 90
_symmetry_cell_setting orthorhombic
_symmetry_space_group_name_H-M 'P b n m'
_space_group_IT_number 62
loop_
  _atom_site_label
  _atom_site_symmetry_multiplicity
  _atom_site_Wyckoff_symbol
  _atom_site_fract_x
  _atom_site_fract_y
  _atom_site_fract_z
   Si1 4 c 0.141  0.232 0.250
   O1  4 c 0.435  0.348 0.250
   O2  4 c 0.666  0.984 0.250
