data_global
_publ_section_title
;
;
_chemical_name 'Coesite (based on Demuth 1999) '
_cell_length_a 7.0672
_cell_length_b 12.2907
_cell_length_c 7.14057
_cell_angle_alpha 90
_cell_angle_beta  90
_cell_angle_gamma 90
_symmetry_space_group_name_H-M 'C 2/c'

loop_
  _atom_site_label
  _atom_site_symmetry_multiplicity
  _atom_site_Wyckoff_symbol
  _atom_site_fract_x
  _atom_site_fract_y
  _atom_site_fract_z
   Si1 8 f 0.1386  0.1087 0.0719
   Si2 8 f 0.5069  0.1574 0.5419
   O1  4 a 0.0000  0.0000 0.0000
   O2  4 e 0.5000  0.1140 0.7500
   O3  8 f 0.2628  0.1256 0.9378
   O4  8 f 0.3132  0.1029 0.3272
   O5  8 f 0.0203  0.2119 0.4745
